88
CSD_code = WELROW | q = 0 | S = 0 | Stoichiometry = C40H36LaN2P3Se6 | MND = 8 | 2020-2024 CSD
La        8.96863758139501    6.85196554201432    3.94646167692748
Se       10.70824589772630    9.06302914669523    5.24054220573378
Se       11.31106250170654    7.30599320462500    2.10472847789826
Se       10.43209991324782    4.75176438105339    5.38173041057888
Se        7.92890152280460    7.10335226588306    6.82637098201414
Se        6.70329195447793    4.79958413067032    3.96735219830508
Se        7.39141222784739    7.35103667839687    1.45076285200909
P        12.12964489699090    8.22494110146645    3.86597822263160
P         9.50451866689761    5.64630376627701    7.12307134075208
P         5.93965551863806    6.35792751681237    2.70316837430847
N         7.58699018833835    9.13719453321112    4.27953095894196
N         9.54695650001690    4.72362170957021    2.28697950536613
C        13.21537837622983    7.06955673724205    4.78048690331916
C        13.47237194681300    5.78599733012197    4.32542491877494
H        13.00057595659610    5.42879302562114    3.41688562548185
C        14.32289096807863    4.96750813967141    5.04709227107259
H        14.51555803557751    3.96212154945031    4.70422514034431
C        14.91943579060372    5.43667861869877    6.20494240029955
H        15.58513746846389    4.79581307911030    6.76437623215058
C        14.66397418545373    6.72339100549152    6.65276655530211
H        15.13189694243827    7.08982087662576    7.55417270927064
C        13.80470383721148    7.54115611454431    5.94592547920068
H        13.57384915447828    8.54126392756723    6.29102333366456
C        13.32548213120749    9.50219235458659    3.34782397576138
C        14.29683704280979    9.12666107744604    2.42757443295863
H        14.29716487522805    8.11588533734012    2.04059227232098
C        15.23374213232762   10.05086895143265    2.00847368152409
H        15.98897555147995    9.76417351884962    1.29178165688910
C        15.20058377551001   11.34530107882574    2.50471255266698
H        15.93242909301704   12.06719438075315    2.17322690504301
C        14.22968563869663   11.71682656612352    3.41927237581238
H        14.20229495105358   12.72646296241419    3.80199245138562
C        13.28909552085623   10.79493860514095    3.84370242497566
H        12.52214828050605   11.06947601048240    4.55748587681576
C        10.84899183898971    6.33203709736820    8.14999885713509
C        10.85246119855753    7.64901728877780    8.57893885483811
H        10.03237187924229    8.30467103106982    8.31465920553337
C        11.91064541023294    8.11424690182959    9.34015649714839
H        11.92137713235015    9.14277284511677    9.66871065962670
C        12.94917669575037    7.26367503877367    9.67734761919583
H        13.77024518230110    7.62835647308486   10.27764234976447
C        12.94406439749361    5.94644810238651    9.24234189430622
H        13.75681503909527    5.28461814727376    9.50276891429662
C        11.90017320686328    5.47991432755398    8.46878814877129
H        11.88754104748138    4.46241803243719    8.09913227994548
C         8.76612152919960    4.31120869686373    8.12139695809978
C         8.93033794080694    4.25616408083377    9.49843843481280
H         9.54595113572960    4.99034788576827    9.99934130056143
C         8.30061377549050    3.25600914964848   10.21754688492495
H         8.42966394178164    3.20548721089828   11.28887958498609
C         7.50501688356962    2.32572355704924    9.56893311861519
H         7.01562268040423    1.54791082833614   10.13655002171163
C         7.33071843823595    2.39331701858485    8.19570718200740
H         6.70400596322631    1.67479951658852    7.68936925843585
C         7.95945455938553    3.38684394617848    7.47013216226873
H         7.82643705826776    3.44947564833983    6.39468533166877
C         4.57838669568414    5.69061765655785    1.69259866399714
C         3.55354229239542    5.02825640362499    2.35781698225192
H         3.60213117009249    4.92051026337373    3.43364497675687
C         2.49989529425403    4.50354021522960    1.63481664861749
H         1.70115954578691    3.98726495199862    2.14626915549561
C         2.47157648553933    4.63723721484823    0.25481600331140
H         1.64754096503578    4.22441728837071   -0.30826039294083
C         3.49744081390537    5.29362826638619   -0.40471262665686
H         3.47509251811046    5.39394933417554   -1.47987335523967
C         4.55526760954641    5.82237307490151    0.31353729033893
H         5.36544895010018    6.34066716941215   -0.18449549355863
C         5.09269707925092    7.62893996735642    3.71675266195039
C         4.64072259765492    8.77083485541491    3.06516274250726
H         4.78303728685026    8.86331668780278    1.99562836636673
C         4.03519752807114    9.77664309904340    3.79252967634053
H         3.68054573279042   10.66444557008176    3.28901997850044
C         3.88897482806080    9.64698269000966    5.16609533101925
H         3.42450186849120   10.44099097378082    5.73352617088358
C         4.32652211982984    8.50191523705549    5.81029243288744
H         4.20992329694118    8.39357818649299    6.87831866833096
C         4.92178913186204    7.48391138631943    5.08547551876471
H         5.24487833249457    6.57841715536778    5.58451067234087
C         7.32504281691849   10.10250702857060    4.84104552215858
C         7.03663610084918   11.29245636080872    5.56943543825225
H         7.97666021967901   11.79934157703307    5.79139537906884
H         6.54235363007949   11.02170059308103    6.50230439974796
H         6.39215679711872   11.94505763165311    4.98251091359901
C         9.25633214286194    4.18047159815980    1.31956234693246
C         8.87086701133021    3.52111626486791    0.11391985082894
H         9.69595851567085    2.91345308032256   -0.25535708585179
H         8.60762682321792    4.27376154379713   -0.62995922883916
H         8.00555784043862    2.88833862355701    0.31196949478365

85
CSD_code = VUCVUN | q = 1 | S = 0 | Stoichiometry = C35H37B2N9OSc(1+) | MND = 6 | 2020-2024 CSD
Sc       -0.39411509310417    2.60383495960443   11.25790060731281
C         2.65093796082751    2.02791969095572   10.33218457869672
H         3.09996308575177    2.31529731295757   11.26627830591656
C         3.27481712042739    1.66747711522573    9.14736636099618
H         4.32389862454115    1.62199706091391    8.94337680598838
C         2.23314579504049    1.37901670979248    8.28566850554372
H         2.26487453214306    1.05848715553670    7.26496936607910
C        -1.91476006295396   -0.65529169668907    9.07837937551769
H        -2.03232138405671   -1.02812729980018    8.08194462355289
C        -2.50232142247928   -1.08500961685892   10.25489927124550
H        -3.18282708091175   -1.89972436373722   10.38678732558739
C        -2.01279779142017   -0.21787465643373   11.22025816841517
H        -2.20694766809866   -0.21406551304676   12.27821430084541
C        -0.14823990521693    0.63750860096322    6.90533690905976
C         0.15401988146510   -0.71954966302082    6.76949881941993
H         0.22372027534027   -1.34138574635184    7.65165485295643
C         0.39553969443115   -1.29425822654258    5.53654022549864
H         0.61916424613750   -2.34957661302086    5.47262436591539
C         0.36525088386338   -0.53151063824474    4.37469148462534
C         0.11475627466587    0.82783862548694    4.49835366305598
H         0.11570153454996    1.45234296774569    3.61659960835737
C        -0.12776148365026    1.39702945701462    5.73610408960084
H        -0.28459811858731    2.46469626023395    5.79425804738498
C         0.60376814577921   -1.16470259657526    3.04051896179863
H         0.77141605548701   -0.41183860178168    2.27483726476822
H         1.46541498641226   -1.82851525116569    3.07798039996545
H        -0.26122635779484   -1.76136486094668    2.75064785805662
C        -1.27126928410041    2.66005724433517    8.40856479208843
C        -2.28117006366900    2.88225207542209    7.47470424071382
H        -2.40215225163544    2.19476320238650    6.65344086506089
C        -3.13861274872914    3.95702509533886    7.62701804922147
H        -3.94200857540559    4.12252641707581    6.92469469412917
C        -2.95655528619641    4.80906638348463    8.70143638507165
H        -3.61266009138297    5.65065320858494    8.85326656795670
C        -1.93911315782316    4.56174476226083    9.62051799607510
C        -2.36730296915639    6.95091975168259   10.93243995911633
C        -2.33433662137421    7.70317370724296    9.75694929343361
H        -1.95295816367951    7.25402158954205    8.85103875922852
C        -2.75372837353844    9.01938842390160    9.72105785111475
H        -2.71804621915203    9.56717957262368    8.79037403412255
C        -3.21527988307617    9.65471105131662   10.86815474561594
C        -3.21048481010350    8.93444816068986   12.05438422877871
H        -3.53509716210943    9.41014025324863   12.96876678590145
C        -2.78634462137604    7.61791226759082   12.08419894171188
H        -2.76489488143008    7.10508849597336   13.03613901643671
C        -3.67275159044599   11.07821121802240   10.81764950944205
H        -4.06773131167083   11.39669589009647   11.77868087165196
H        -2.84331883489528   11.73206324326504   10.54996253509208
H        -4.44703806213436   11.20204892544241   10.06226882870626
C        -3.06067601893809    2.75357038477177   13.10995809536211
H        -2.91137866765997    1.78032842689100   13.54297942962950
C        -4.15524272164284    3.59612029015250   13.23412112170692
H        -5.06389678185841    3.41939626091172   13.77020975334468
C        -3.80907708237572    4.71811457491384   12.50243163854748
H        -4.37254393627354    5.60798058141018   12.31188951827842
C         0.37590343360634    6.66797069783588   11.64735464952791
H        -0.04845813055913    7.63175280791398   11.45581103496221
C         1.64165685193604    6.34008366397506   12.09581359454904
H         2.44342366399945    7.00642390236727   12.33559057534007
C         1.63462451485914    4.95491723166801   12.16213829235223
H         2.42358949307130    4.29457346633582   12.47538099391850
B        -0.35127310098931    1.30804252332137    8.35188854080841
B        -1.80635826179194    5.44597219158205   10.99113604477879
N         1.32141499601404    1.96212263634840   10.19347068697034
N         1.07719081825372    1.55823614944767    8.93259167356330
N        -1.11927803719041    0.38087481030654    9.35142509270127
N        -1.18540202922967    0.67735477331996   10.66498308257391
N        -1.15176989796069    3.47843876195145    9.47218907752228
N        -2.11596566689338    3.32670824600702   12.35269745334860
N        -2.58295184983959    4.54283818427060   12.00544240112465
N        -0.32233823245481    5.54214739267837   11.46828335091872
N         0.44364808854330    4.47940822231238   11.77891728306737
O         0.35774301345642    1.70002730001915   13.11561615548144
C         1.03716755708402    0.44847270874862   13.27665461636213
H         1.32391195722178    0.08183651059213   12.28879459544088
H         0.35580493138987   -0.27124643379633   13.75040506095420
C         2.23066821385946    0.73965020220504   14.19565321427592
H         2.42080008526820   -0.09459321515393   14.86605995515728
H         3.13336237927464    0.91694016571401   13.61447254800484
C         1.80316917462505    2.00856010088776   14.95504047565319
H         1.79553585527600    1.86124592859967   16.03197115811672
H         2.46979884877938    2.83994262315659   14.73256386321857
C         0.39369379044104    2.28746360421692   14.42191785541670
H         0.16114481826366    3.35039677034690   14.32989923327335
H        -0.35965983506701    1.80048604201953   15.05576478690183

